TITL H-H-Cmce-4-II 400.0291 5.060319 -4.24509444E+001 0 0 4 (Cmce) n - 1
REM
REM Run started: Tue, 02 Jul 2019 15:06:32 +0100 in /home/cjp20/work/RUNS/H-Bingqing/Collection-400GPa
REM CASTEP 19.1 from code version c8d46cc1791f+ Fri, 02 Nov 2018 15:03:39 +0000
REM Functional Perdew Burke Ernzerhof Relativity Koelling-Harmon Dispersion off
REM Cut-off 500.0000 eV Grid scale 2.0000 Gmax 34.3673 1/A FBSC none
REM Offset 0.000 0.000 0.000 No. kpts 320 Spacing 0.05
REM
REM H.cell (64aa2a3819804d7fab852ebf16f73635)
REM AIRSS Version 0.9.2 xxxx 2019 build 2b12898f19dc+ Mon, 17 Jun 2019 10:04:37 +0100
REM
REM
REM
REM
REM H 1|0.6|13|15|17|10(qc=8)
REM 
CELL 1.54180    1.54447    1.57190    2.39305   90.00000   90.00000  119.42411
LATT -1
SFAC H  
H      1 -0.1338880094884  0.7322239810235  0.9390192113820 1.0
H      1 -0.6338880094884 -0.2677760189765  0.5609807886180 1.0
H      1 -0.3661119905121  0.2677760189761  0.4390192113820 1.0
H      1 -0.8661119905121 -0.7322239810239  0.0609807886180 1.0
END
