TITL H-H-P6122-36-I 100.0000 82.152749 -4.93129537E+002 0 0 36 (P6122) n - 1
REM
REM Run started: Fri, 12 Oct 2018 11:58:25 +0100 in /home/cjp20/work/RUNS/H-II/Collection-100GPa
REM CASTEP 19.1 from code version 10fd1d09d1e9+ Thu, 04 Oct 2018 14:12:52 +0100
REM Functional Perdew Burke Ernzerhof Relativity Koelling-Harmon Dispersion off
REM Cut-off 1000.0000 eV Grid scale 2.0000 Gmax 48.6026 1/A FBSC automatic
REM Offset 0.000 0.000 0.000 No. kpts 84 Spacing 0.03
REM
REM H.cell (f746fbe78576123e9b84afe53ed48119)
REM AIRSS Version 0.9.2 xxxx 2019 build 46e67c73c3e9+ Thu, 04 Oct 2018 15:09:34 +0100
REM
REM
REM
REM
REM H 1|0.6|13|15|17|10(qc=8)
REM 
CELL 1.54180    3.27559    3.27559    8.84124   90.00000   90.00000  120.00000
LATT -1
SFAC H  
H      1  0.3305829369007  0.0637245032255  0.6596763439469 1.0
H      1  0.8416454493293  0.3387655139623  0.6698405298976 1.0
H      1  0.9362554967747  0.2668484336753  0.9930096772802 1.0
H      1  0.6612144860379  0.5028699353671  0.0031738632310 1.0
H      1  0.7331315663249  0.6693970630995  0.3263430106135 1.0
H      1  0.4971100646331  0.1583345506709  0.3365071965643 1.0
H      1  0.6693970630995  0.9362554967747  0.1596763439469 1.0
H      1  0.1583345506709  0.6612144860379  0.1698405298976 1.0
H      1  0.0637245032255  0.7331315663249  0.4930096772802 1.0
H      1  0.3387655139623  0.4971100646331  0.5031738632310 1.0
H      1  0.2668484336753  0.3305829369007  0.8263430106135 1.0
H      1  0.5028699353671  0.8416454493293  0.8365071965643 1.0
H      1  0.0637245032255  0.3305829369007  0.6736569893865 1.0
H      1  0.3387655139623  0.8416454493293  0.6634928034357 1.0
H      1  0.2668484336753  0.9362554967747  0.3403236560531 1.0
H      1  0.5028699353671  0.6612144860379  0.3301594701024 1.0
H      1  0.6693970630995  0.7331315663249  0.0069903227198 1.0
H      1  0.1583345506709  0.4971100646331  0.9968261367690 1.0
H      1  0.9362554967747  0.6693970630995  0.1736569893865 1.0
H      1  0.6612144860379  0.1583345506709  0.1634928034357 1.0
H      1  0.7331315663249  0.0637245032255  0.8403236560531 1.0
H      1  0.4971100646331  0.3387655139623  0.8301594701024 1.0
H      1  0.3305829369007  0.2668484336753  0.5069903227198 1.0
H      1  0.8416454493293  0.5028699353671  0.4968261367690 1.0
H      1  0.8228722415382 -0.0000099999999  0.5000000000000 1.0
H      1  0.5976913882421 -0.0000099999999  0.5000000000000 1.0
H      1 -0.0000099999999  0.8228722415382  0.8333333333333 1.0
H      1 -0.0000099999999  0.5976913882421  0.8333333333333 1.0
H      1  0.1771077584620  0.1771077584620  0.1666666666667 1.0
H      1  0.4022886117581  0.4022886117581  0.1666666666667 1.0
H      1  0.1771077584620 -0.0000099999999 -0.0000000000000 1.0
H      1  0.4022886117581 -0.0000099999999 -0.0000000000000 1.0
H      1 -0.0000099999999  0.1771077584620  0.3333333333333 1.0
H      1 -0.0000099999999  0.4022886117581  0.3333333333333 1.0
H      1  0.8228722415382  0.8228722415382  0.6666666666667 1.0
H      1  0.5976913882421  0.5976913882421  0.6666666666667 1.0
END
